% Auto-generated by hpa_meshing.adapters.su2_backend
% Package-native baseline SU2 case built from mesh_handoff.v1
% alpha=0.000000 deg
SOLVER= INC_NAVIER_STOKES
KIND_TURB_MODEL= NONE
MATH_PROBLEM= DIRECT
SYSTEM_MEASUREMENTS= SI
RESTART_SOL= NO
INC_NONDIM= INITIAL_VALUES
INC_DENSITY_MODEL= CONSTANT
FLUID_MODEL= CONSTANT_DENSITY
VISCOSITY_MODEL= CONSTANT_VISCOSITY
MU_CONSTANT= 1.789400e-05
INC_DENSITY_INIT= 1.225000
INC_TEMPERATURE_INIT= 288.150000
INC_VELOCITY_INIT= ( 6.500000, 0.000000, 0.000000 )
AOA= 0.000000
SIDESLIP_ANGLE= 0.000000
REF_AREA= 1.000000
REF_LENGTH= 2.828807
REF_ORIGIN_MOMENT_X= 0.000000
REF_ORIGIN_MOMENT_Y= 0.000000
REF_ORIGIN_MOMENT_Z= 0.000000
MESH_FILENAME= mesh.su2
MESH_FORMAT= SU2
MARKER_EULER= ( fairing_solid )
MARKER_MONITORING= ( fairing_solid )
MARKER_PLOTTING= ( fairing_solid )
MARKER_FAR= ( farfield )
NUM_METHOD_GRAD= WEIGHTED_LEAST_SQUARES
CONV_NUM_METHOD_FLOW= FDS
TIME_DISCRE_FLOW= EULER_IMPLICIT
LINEAR_SOLVER= FGMRES
LINEAR_SOLVER_PREC= ILU
LINEAR_SOLVER_ERROR= 1e-06
LINEAR_SOLVER_ITER= 8
ITER= 12
CFL_NUMBER= 5.0
CONV_FIELD= DRAG
CONV_RESIDUAL_MINVAL= -9
CONV_STARTITER= 5
CONV_FILENAME= history
TABULAR_FORMAT= CSV
SCREEN_OUTPUT= (INNER_ITER, RMS_RES, AERO_COEFF)
HISTORY_OUTPUT= (ITER, RMS_RES, AERO_COEFF)
OUTPUT_FILES= (RESTART_ASCII, PARAVIEW_ASCII, SURFACE_CSV)
